
  MOLSOFT 04212510420D

  0  0  0  0  0  0  0  0  0  0999 V2000
M  END
> <rmsd_1el3_1pwl>
2.240842

> <rmsd_1el3_1t40>
2.23012

> <rmsd_1el3_1x98>
1.919312

> <rmsd_1el3_2agt>
2.11302

> <rmsd_1el3_2hv5>
2.316311

> <rmsd_1el3_2nvc>
1.875846

> <rmsd_1pwl_1t40>
1.863043

> <rmsd_1pwl_1x98>
2.300839

> <rmsd_1pwl_2agt>
1.993111

> <rmsd_1pwl_2hv5>
1.982945

> <rmsd_1pwl_2nvc>
2.253941

> <rmsd_1t40_1x98>
2.253671

> <rmsd_1t40_2agt>
1.975827

> <rmsd_1t40_2hv5>
1.922027

> <rmsd_1t40_2nvc>
2.252152

> <rmsd_1x98_2agt>
2.062955

> <rmsd_1x98_2hv5>
2.31853

> <rmsd_1x98_2nvc>
1.86232

> <rmsd_2agt_2hv5>
1.989002

> <rmsd_2agt_2nvc>
2.147809

> <rmsd_2hv5_2nvc>
2.365856

$$$$
