
  MOLSOFT 04212510390D

  0  0  0  0  0  0  0  0  0  0999 V2000
M  END
> <rmsd_1o8a_1o86>
1.645929

> <rmsd_1o8a_1uze>
1.638215

> <rmsd_1o8a_2oc2>
1.638973

> <rmsd_1o8a_3bkl>
1.62387

> <rmsd_1o86_1uze>
1.599219

> <rmsd_1o86_2oc2>
1.648623

> <rmsd_1o86_3bkl>
1.649919

> <rmsd_1uze_2oc2>
1.651331

> <rmsd_1uze_3bkl>
1.648555

> <rmsd_2oc2_3bkl>
1.62122

$$$$
